Mpro-x0072_0A
     RDKit          3D

 13 13  0  0  0  0  0  0  0  0999 V2000
    6.4820   -5.0190   26.5690 C   0  0  0  0  0  0  0  0  0  0  0  0
    9.3680   -3.0940   24.1630 C   0  0  0  0  0  0  0  0  0  0  0  0
    9.2670   -1.8110   23.3490 C   0  0  0  0  0  0  0  0  0  0  0  0
   10.6630   -1.2110   23.3970 C   0  0  0  0  0  0  0  0  0  0  0  0
   10.9730   -0.1690   24.2630 C   0  0  0  0  0  0  0  0  0  0  0  0
   12.2640    0.3320   24.2880 C   0  0  0  0  0  0  0  0  0  0  0  0
   13.2420   -0.2210   23.4770 C   0  0  0  0  0  0  0  0  0  0  0  0
   12.9290   -1.2700   22.6220 C   0  0  0  0  0  0  0  0  0  0  0  0
   11.6400   -1.7610   22.5910 C   0  0  0  0  0  0  0  0  0  0  0  0
    8.1130   -3.6000   24.6580 N   0  0  0  0  0  0  0  0  0  0  0  0
    9.1280   -5.5160   26.1560 O   0  0  0  0  0  0  0  0  0  0  0  0
    8.6930   -3.5880   27.1960 O   0  0  0  0  0  0  0  0  0  0  0  0
    8.1440   -4.4290   26.1460 S   0  0  2  0  0  0  0  0  0  0  0  0
  3  2  1  0
  4  3  1  0
  5  4  2  0
  6  5  1  0
  7  6  2  0
  8  7  1  0
  9  4  1  0
  9  8  2  0
 10  2  1  0
 13 11  2  0
 13 12  2  0
 13 10  1  0
 13  1  1  1
M  END
$$$$
Mpro-x0104_0A
     RDKit          3D

 16 17  0  0  0  0  0  0  0  0999 V2000
    9.0920    6.1800   22.6540 C   0  0  0  0  0  0  0  0  0  0  0  0
   10.3730    5.8770   23.4210 C   0  0  0  0  0  0  0  0  0  0  0  0
   12.7640    5.0090   23.3820 C   0  0  0  0  0  0  0  0  0  0  0  0
   13.1400    3.5810   22.9820 C   0  0  0  0  0  0  0  0  0  0  0  0
   12.1520    2.4980   23.4440 C   0  0  0  0  0  0  0  0  0  0  0  0
   11.0280    2.6760   24.2350 C   0  0  0  0  0  0  0  0  0  0  0  0
   11.1270    0.5250   23.7420 C   0  0  0  0  0  0  0  0  0  0  0  0
   10.8970   -0.8700   23.6180 C   0  0  0  0  0  0  0  0  0  0  0  0
   11.7770   -1.6500   22.8720 C   0  0  0  0  0  0  0  0  0  0  0  0
   12.8810   -1.0580   22.2500 C   0  0  0  0  0  0  0  0  0  0  0  0
   13.1060    0.3120   22.3790 C   0  0  0  0  0  0  0  0  0  0  0  0
   12.2110    1.1150   23.1360 C   0  0  0  0  0  0  0  0  0  0  0  0
   13.7480   -1.8150   21.5190 F   0  0  0  0  0  0  0  0  0  0  0  0
   11.5230    5.3440   22.7110 N   0  0  0  0  0  0  0  0  0  0  0  0
   10.4360    1.5010   24.3980 N   0  0  0  0  0  0  0  0  0  0  0  0
   10.4150    6.0670   24.5850 O   0  0  0  0  0  0  0  0  0  0  0  0
  2  1  1  0
  4  3  1  0
  5  4  1  0
  6  5  2  0
  8  7  2  0
  9  8  1  0
 10  9  2  0
 11 10  1  0
 12 11  2  0
 12  7  1  0
 12  5  1  0
 13 10  1  0
 14  2  1  0
 14  3  1  0
 15  7  1  0
 15  6  1  0
 16  2  2  0
M  END
$$$$
Mpro-x0107_0A
     RDKit          3D

 11 11  0  0  0  0  0  0  0  0999 V2000
   10.0930   -0.7090   22.5610 C   0  0  0  0  0  0  0  0  0  0  0  0
    9.1970   -0.0850   21.4940 C   0  0  0  0  0  0  0  0  0  0  0  0
    7.0950   -0.1380   20.0970 C   0  0  0  0  0  0  0  0  0  0  0  0
    7.4670   -0.2020   18.7610 C   0  0  0  0  0  0  0  0  0  0  0  0
    5.5850    0.9230   18.1010 C   0  0  0  0  0  0  0  0  0  0  0  0
    5.1320    1.0430   19.4080 C   0  0  0  0  0  0  0  0  0  0  0  0
    5.9020    0.4960   20.4350 C   0  0  0  0  0  0  0  0  0  0  0  0
    5.4610    0.5980   21.8930 C   0  0  0  0  0  0  0  0  0  0  0  0
    7.9490   -0.7270   21.1170 N   0  0  0  0  0  0  0  0  0  0  0  0
    6.7150    0.3200   17.8100 N   0  0  0  0  0  0  0  0  0  0  0  0
    9.5230    0.9280   20.9800 O   0  0  0  0  0  0  0  0  0  0  0  0
  2  1  1  0
  4  3  2  0
  6  5  1  0
  7  6  2  0
  7  3  1  0
  8  7  1  0
  9  3  1  0
  9  2  1  0
 10  5  2  0
 10  4  1  0
 11  2  2  0
M  END
$$$$
Mpro-x0161_0A
     RDKit          3D

 14 14  0  0  0  0  0  0  0  0999 V2000
   13.6590   -2.4530   24.3150 C   0  0  0  0  0  0  0  0  0  0  0  0
   13.2970   -0.2200   23.5300 C   0  0  0  0  0  0  0  0  0  0  0  0
   12.5420    1.1040   23.6150 C   0  0  0  0  0  0  0  0  0  0  0  0
   11.3240    1.1760   24.2760 C   0  0  0  0  0  0  0  0  0  0  0  0
   10.6520    2.3880   24.3570 C   0  0  0  0  0  0  0  0  0  0  0  0
   11.2060    3.5220   23.7710 C   0  0  0  0  0  0  0  0  0  0  0  0
   12.4240    3.4470   23.1100 C   0  0  0  0  0  0  0  0  0  0  0  0
   13.0900    2.2390   23.0360 C   0  0  0  0  0  0  0  0  0  0  0  0
    8.9250    5.0920   22.9240 N   0  0  0  0  0  0  0  0  0  0  0  0
   13.1750   -1.1560   24.5670 O   0  0  0  0  0  0  0  0  0  0  0  0
   13.9930   -0.4350   22.6010 O   0  0  0  0  0  0  0  0  0  0  0  0
   11.2250    6.2140   23.4620 O   0  0  0  0  0  0  0  0  0  0  0  0
   10.0600    5.4450   25.2660 O   0  0  0  0  0  0  0  0  0  0  0  0
   10.3470    5.1120   23.8690 S   0  0  2  0  0  0  0  0  0  0  0  0
  3  2  1  0
  4  3  2  0
  5  4  1  0
  6  5  2  0
  7  6  1  0
  8  7  2  0
  8  3  1  0
 10  2  1  0
 10  1  1  0
 11  2  2  0
 14 13  2  0
 14  9  1  6
 14  6  1  0
 14 12  2  0
M  END
$$$$
Mpro-x0195_0A
     RDKit          3D

 15 16  0  0  0  0  0  0  0  0999 V2000
    9.9850   -0.4670   24.9170 C   0  0  0  0  0  0  0  0  0  0  0  0
   11.7680   -1.6470   23.6700 C   0  0  0  0  0  0  0  0  0  0  0  0
   12.7760   -1.5380   22.5650 C   0  0  0  0  0  0  0  0  0  0  0  0
   13.7310   -0.3880   22.8110 C   0  0  0  0  0  0  0  0  0  0  0  0
   12.9570    0.9450   23.0500 C   0  0  0  0  0  0  0  0  0  0  0  0
   13.5110    2.1750   22.6480 C   0  0  0  0  0  0  0  0  0  0  0  0
   12.8040    3.3620   22.8550 C   0  0  0  0  0  0  0  0  0  0  0  0
   11.5350    3.2980   23.4640 C   0  0  0  0  0  0  0  0  0  0  0  0
   10.9820    2.0850   23.8570 C   0  0  0  0  0  0  0  0  0  0  0  0
   11.6940    0.8890   23.6430 C   0  0  0  0  0  0  0  0  0  0  0  0
   11.1340   -0.4170   24.0440 N   0  0  0  0  0  0  0  0  0  0  0  0
   11.5600    6.1720   23.5010 N   0  0  0  0  0  0  0  0  0  0  0  0
   10.0790    4.7190   25.1300 O   0  0  0  0  0  0  0  0  0  0  0  0
    9.3440    4.8410   22.9950 O   0  0  0  0  0  0  0  0  0  0  0  0
   10.5880    4.8000   23.7670 S   0  0  2  0  0  0  0  0  0  0  0  0
  3  2  1  0
  4  3  1  0
  5  4  1  0
  6  5  2  0
  7  6  1  0
  8  7  2  0
  9  8  1  0
 10  9  2  0
 10  5  1  0
 11  1  1  0
 11 10  1  0
 11  2  1  0
 15 14  2  0
 15 13  2  0
 15  8  1  0
 15 12  1  1
M  END
$$$$
Mpro-x0305_0A
     RDKit          3D

 11 11  0  0  0  0  0  0  0  0999 V2000
    8.4460   -0.0540   27.4260 C   0  0  0  0  0  0  0  0  0  0  0  0
    9.0020   -0.6010   26.1300 C   0  0  0  0  0  0  0  0  0  0  0  0
   10.9640   -0.2380   24.6210 C   0  0  0  0  0  0  0  0  0  0  0  0
   10.6090   -1.3690   23.8970 C   0  0  0  0  0  0  0  0  0  0  0  0
   11.3970   -1.7830   22.8410 C   0  0  0  0  0  0  0  0  0  0  0  0
   12.5290   -1.0500   22.5330 C   0  0  0  0  0  0  0  0  0  0  0  0
   13.4220   -1.4900   21.3810 C   0  0  0  0  0  0  0  0  0  0  0  0
   12.8260    0.0730   23.3030 C   0  0  0  0  0  0  0  0  0  0  0  0
   10.1380    0.2030   25.7180 N   0  0  0  0  0  0  0  0  0  0  0  0
   14.1030   -1.7930   20.5250 N   0  0  0  0  0  0  0  0  0  0  0  0
   12.0460    0.4510   24.3140 N   0  0  0  0  0  0  0  0  0  0  0  0
  2  1  1  0
  4  3  2  0
  5  4  1  0
  6  5  2  0
  7  6  1  0
  8  6  1  0
  9  2  1  0
  9  3  1  0
 10  7  3  0
 11  8  2  0
 11  3  1  0
M  END
$$$$
Mpro-x0354_0A
     RDKit          3D

 18 19  0  0  0  0  0  0  0  0999 V2000
   13.1950   -1.0870   22.5450 C   0  0  0  0  0  0  0  0  0  0  0  0
    7.2540    2.7130   29.3060 C   0  0  0  0  0  0  0  0  0  0  0  0
    6.0420    2.6130   29.9610 C   0  0  0  0  0  0  0  0  0  0  0  0
    5.5350    3.7270   30.8300 C   0  0  0  0  0  0  0  0  0  0  0  0
    5.3130    1.4500   29.7990 C   0  0  0  0  0  0  0  0  0  0  0  0
    5.7700    0.4070   29.0080 C   0  0  0  0  0  0  0  0  0  0  0  0
   11.6890   -0.1540   24.1780 C   0  0  0  0  0  0  0  0  0  0  0  0
   10.9800   -0.4280   25.4820 C   0  0  0  0  0  0  0  0  0  0  0  0
   10.6410   -2.7400   24.7660 C   0  0  0  0  0  0  0  0  0  0  0  0
   11.4150   -2.4130   23.5060 C   0  0  0  0  0  0  0  0  0  0  0  0
    8.7550   -1.4710   25.7760 C   0  0  0  0  0  0  0  0  0  0  0  0
    8.3410   -0.2240   26.5470 C   0  0  0  0  0  0  0  0  0  0  0  0
    6.9850    0.5260   28.3530 C   0  0  0  0  0  0  0  0  0  0  0  0
    7.7310    1.6900   28.5030 C   0  0  0  0  0  0  0  0  0  0  0  0
   12.3970   -1.3530   23.7410 N   0  0  0  0  0  0  0  0  0  0  0  0
   10.0350   -1.5410   25.3490 N   0  0  0  0  0  0  0  0  0  0  0  0
    7.9250   -2.3560   25.5660 O   0  0  0  0  0  0  0  0  0  0  0  0
    7.4160   -0.5220   27.5810 O   0  0  0  0  0  0  0  0  0  0  0  0
  3  2  2  0
  4  3  1  0
  5  3  1  0
  6  5  2  0
  8  7  1  0
 10  9  1  0
 12 11  1  0
 13  6  1  0
 14 13  2  0
 14  2  1  0
 15 10  1  0
 15  7  1  0
 15  1  1  0
 16 11  1  0
 16  9  1  0
 16  8  1  0
 17 11  2  0
 18 12  1  0
 18 13  1  0
M  END
$$$$
Mpro-x0387_0A
     RDKit          3D

 13 14  0  0  0  0  0  0  0  0999 V2000
    9.0920   -4.8570   26.5210 C   0  0  2  0  0  0  0  0  0  0  0  0
   10.3340   -4.7060   25.8060 C   0  0  0  0  0  0  0  0  0  0  0  0
   10.5740   -3.2980   25.2520 C   0  0  0  0  0  0  0  0  0  0  0  0
    9.6260   -1.5340   24.2270 C   0  0  0  0  0  0  0  0  0  0  0  0
   11.0050   -1.1770   23.6540 C   0  0  0  0  0  0  0  0  0  0  0  0
   11.9090   -0.0680   24.1860 C   0  0  0  0  0  0  0  0  0  0  0  0
   13.1230   -0.0170   23.4230 C   0  0  0  0  0  0  0  0  0  0  0  0
   11.6500   -1.8180   22.5480 C   0  0  0  0  0  0  0  0  0  0  0  0
    8.2500   -2.8700   25.3050 C   0  0  0  0  0  0  0  0  0  0  0  0
    7.9930   -4.3060   25.7710 C   0  0  0  0  0  0  0  0  0  0  0  0
    9.4670   -2.7230   24.5270 N   0  0  0  0  0  0  0  0  0  0  0  0
    9.2090   -4.2610   27.7890 O   0  0  0  0  0  0  0  0  0  0  0  0
   13.0940   -1.1460   22.2660 S   0  0  0  0  0  0  0  0  0  0  0  0
  2  1  1  0
  3  2  1  0
  5  4  1  0
  6  5  1  0
  7  6  2  0
  8  5  2  0
 10  9  1  0
 10  1  1  0
 11  9  1  0
 11  4  1  0
 11  3  1  0
  1 12  1  1
 13  8  1  0
 13  7  1  0
M  END
$$$$
Mpro-x0395_0A
     RDKit          3D

 14 15  0  0  0  0  0  0  0  0999 V2000
    9.3630   -5.4320   26.2670 C   0  0  0  0  0  0  0  0  0  0  0  0
    9.1240   -4.0530   25.6350 C   0  0  0  0  0  0  0  0  0  0  0  0
    8.9910   -2.0790   24.1450 C   0  0  0  0  0  0  0  0  0  0  0  0
    9.0600   -1.0730   22.9800 C   0  0  0  0  0  0  0  0  0  0  0  0
   10.5260    0.2950   23.7990 C   0  0  0  0  0  0  0  0  0  0  0  0
   11.8470    1.1960   23.3780 C   0  0  0  0  0  0  0  0  0  0  0  0
   12.8730    0.4430   22.9060 C   0  0  0  0  0  0  0  0  0  0  0  0
   12.5490   -0.8260   22.1220 C   0  0  0  0  0  0  0  0  0  0  0  0
   11.3210   -1.4800   22.4120 C   0  0  0  0  0  0  0  0  0  0  0  0
   13.5360   -1.5470   21.5700 F   0  0  0  0  0  0  0  0  0  0  0  0
    8.5580   -2.9790   26.2880 N   0  0  0  0  0  0  0  0  0  0  0  0
    8.4720   -1.8000   25.3980 N   0  0  0  0  0  0  0  0  0  0  0  0
   10.1820   -0.5040   22.8620 N   0  0  0  0  0  0  0  0  0  0  0  0
    9.5110   -3.6360   24.0930 S   0  0  0  0  0  0  0  0  0  0  0  0
  2  1  1  0
  4  3  1  0
  6  5  1  0
  7  6  1  0
  8  7  2  0
  9  8  1  0
 10  8  1  0
 11  2  2  0
 12 11  1  0
 12  3  2  0
 13  5  1  0
 13  4  1  0
 13  9  1  0
 14  3  1  0
 14  2  1  0
M  END
$$$$
Mpro-x0397_0A
     RDKit          3D

 15 16  0  0  0  0  0  0  0  0999 V2000
    8.3790   -1.4100   20.8090 C   0  0  0  0  0  0  0  0  0  0  0  0
    7.3420   -1.6900   18.5080 C   0  0  0  0  0  0  0  0  0  0  0  0
    6.5040   -0.3970   18.4140 C   0  0  0  0  0  0  0  0  0  0  0  0
    5.5280    0.0040   19.3240 C   0  0  0  0  0  0  0  0  0  0  0  0
    5.0280    1.1990   18.8870 C   0  0  0  0  0  0  0  0  0  0  0  0
    3.9320    2.0200   19.5680 C   0  0  0  0  0  0  0  0  0  0  0  0
    6.5290   -3.1160   20.4660 C   0  0  0  0  0  0  0  0  0  0  0  0
    5.7230   -4.5210   22.4420 C   0  0  2  0  0  0  0  0  0  0  0  0
    6.4120   -5.5330   23.3620 C   0  0  0  0  0  0  0  0  0  0  0  0
    5.9890   -5.9440   21.9450 C   0  0  0  0  0  0  0  0  0  0  0  0
    7.4170   -2.0830   19.9270 N   0  0  0  0  0  0  0  0  0  0  0  0
    6.5860    0.5510   17.4680 N   0  0  0  0  0  0  0  0  0  0  0  0
    6.6030   -3.4830   21.8880 N   0  0  0  0  0  0  0  0  0  0  0  0
    5.6690    1.5090   17.7700 O   0  0  0  0  0  0  0  0  0  0  0  0
    5.7550   -3.6540   19.7380 O   0  0  0  0  0  0  0  0  0  0  0  0
  3  2  1  0
  4  3  1  0
  5  4  2  0
  6  5  1  0
  9  8  1  0
 10  9  1  0
 10  8  1  0
 11  7  1  0
 11  2  1  0
 11  1  1  0
 12  3  2  0
 13  7  1  0
  8 13  1  6
 14  5  1  0
 14 12  1  0
 15  7  2  0
M  END
$$$$
Mpro-x0426_0A
     RDKit          3D

 18 19  0  0  0  0  0  0  0  0999 V2000
    1.5000    3.7700   25.2180 C   0  0  0  0  0  0  0  0  0  0  0  0
    0.5020    4.4780   25.8760 C   0  0  0  0  0  0  0  0  0  0  0  0
   -0.8050    4.0130   25.9080 C   0  0  0  0  0  0  0  0  0  0  0  0
   -1.1250    2.8240   25.2730 C   0  0  0  0  0  0  0  0  0  0  0  0
   -0.1350    2.1140   24.6050 C   0  0  0  0  0  0  0  0  0  0  0  0
    1.1800    2.5770   24.5780 C   0  0  0  0  0  0  0  0  0  0  0  0
    2.2360    1.7630   23.8310 C   0  0  0  0  0  0  0  0  0  0  0  0
    4.3820    1.6600   22.4500 C   0  0  0  0  0  0  0  0  0  0  0  0
    3.8870    1.5920   21.0050 C   0  0  0  0  0  0  0  0  0  0  0  0
    4.8870    1.1170   19.9470 C   0  0  0  0  0  0  0  0  0  0  0  0
    5.8980    0.1920   20.2110 C   0  0  0  0  0  0  0  0  0  0  0  0
    6.7430   -0.1740   19.1630 C   0  0  0  0  0  0  0  0  0  0  0  0
    5.6540    1.1980   17.6920 C   0  0  0  0  0  0  0  0  0  0  0  0
    4.7740    1.6210   18.6740 C   0  0  0  0  0  0  0  0  0  0  0  0
    2.7830    4.2550   25.2110 F   0  0  0  0  0  0  0  0  0  0  0  0
    3.3750    2.4160   23.1950 N   0  0  0  0  0  0  0  0  0  0  0  0
    6.6060    0.3300   17.9440 N   0  0  0  0  0  0  0  0  0  0  0  0
    2.1040    0.5830   23.7720 O   0  0  0  0  0  0  0  0  0  0  0  0
  2  1  2  0
  3  2  1  0
  4  3  2  0
  5  4  1  0
  6  5  2  0
  6  1  1  0
  7  6  1  0
  9  8  1  0
 10  9  1  0
 11 10  2  0
 12 11  1  0
 14 10  1  0
 14 13  2  0
 15  1  1  0
 16  8  1  0
 16  7  1  0
 17 13  1  0
 17 12  2  0
 18  7  2  0
M  END
$$$$
Mpro-x0434_0A
     RDKit          3D

 16 17  0  0  0  0  0  0  0  0999 V2000
    8.6540   -0.2620   21.3570 C   0  0  0  0  0  0  0  0  0  0  0  0
   10.5810   -0.5230   22.8270 C   0  0  0  0  0  0  0  0  0  0  0  0
   10.6210    0.3060   23.9300 C   0  0  0  0  0  0  0  0  0  0  0  0
   11.8280    0.8130   24.3440 C   0  0  0  0  0  0  0  0  0  0  0  0
   12.9850    0.4970   23.6470 C   0  0  0  0  0  0  0  0  0  0  0  0
   12.9370   -0.3320   22.5390 C   0  0  0  0  0  0  0  0  0  0  0  0
   11.7230   -0.8390   22.1180 C   0  0  0  0  0  0  0  0  0  0  0  0
    6.6650    0.0110   19.8650 C   0  0  0  0  0  0  0  0  0  0  0  0
    5.4620    0.6370   20.1500 C   0  0  0  0  0  0  0  0  0  0  0  0
    4.8340    1.3010   19.1090 C   0  0  0  0  0  0  0  0  0  0  0  0
    5.4250    1.2710   17.8510 C   0  0  0  0  0  0  0  0  0  0  0  0
    7.2060    0.0410   18.5920 C   0  0  0  0  0  0  0  0  0  0  0  0
    9.2930   -0.9950   22.4230 N   0  0  0  0  0  0  0  0  0  0  0  0
    7.3450   -0.6820   20.9270 N   0  0  0  0  0  0  0  0  0  0  0  0
    6.5730    0.6730   17.6390 N   0  0  0  0  0  0  0  0  0  0  0  0
    9.2090    0.6560   20.8490 O   0  0  0  0  0  0  0  0  0  0  0  0
  3  2  2  0
  4  3  1  0
  5  4  2  0
  6  5  1  0
  7  2  1  0
  7  6  2  0
  9  8  2  0
 10  9  1  0
 11 10  2  0
 12  8  1  0
 13  1  1  0
 13  2  1  0
 14  8  1  0
 14  1  1  0
 15 11  1  0
 15 12  2  0
 16  1  2  0
M  END
$$$$
Mpro-x0540_0A
     RDKit          3D

 18 19  0  0  0  0  0  0  0  0999 V2000
    2.9660    2.2800   23.3600 C   0  0  0  0  0  0  0  0  0  0  0  0
    5.2430    1.5180   22.5550 C   0  0  0  0  0  0  0  0  0  0  0  0
    4.9150    0.2850   21.7180 C   0  0  0  0  0  0  0  0  0  0  0  0
    5.3430    0.4010   20.2560 C   0  0  0  0  0  0  0  0  0  0  0  0
    6.4120   -0.3710   19.7970 C   0  0  0  0  0  0  0  0  0  0  0  0
    6.7960   -0.2570   18.4680 C   0  0  0  0  0  0  0  0  0  0  0  0
    5.1270    1.2920   18.0600 C   0  0  0  0  0  0  0  0  0  0  0  0
    4.6740    1.2560   19.3750 C   0  0  0  0  0  0  0  0  0  0  0  0
    0.6900    3.2680   23.9590 C   0  0  1  0  0  0  0  0  0  0  0  0
    0.5830    4.7080   24.4680 C   0  0  0  0  0  0  0  0  0  0  0  0
   -0.7390    4.9620   25.1750 C   0  0  0  0  0  0  0  0  0  0  0  0
   -1.9070    4.6500   24.2490 C   0  0  0  0  0  0  0  0  0  0  0  0
   -1.8540    3.2180   23.7320 C   0  0  0  0  0  0  0  0  0  0  0  0
   -0.5020    2.8610   23.1050 C   0  0  0  0  0  0  0  0  0  0  0  0
    4.1110    2.4150   22.4740 N   0  0  0  0  0  0  0  0  0  0  0  0
    6.1610    0.5530   17.6520 N   0  0  0  0  0  0  0  0  0  0  0  0
    1.8890    3.2260   23.1480 N   0  0  0  0  0  0  0  0  0  0  0  0
    2.9270    1.4360   24.2060 O   0  0  0  0  0  0  0  0  0  0  0  0
  3  2  1  0
  4  3  1  0
  5  4  2  0
  6  5  1  0
  8  7  2  0
  8  4  1  0
 10  9  1  0
 11 10  1  0
 12 11  1  0
 13 12  1  0
 14 13  1  0
 14  9  1  0
 15  2  1  0
 15  1  1  0
 16  7  1  0
 16  6  2  0
  9 17  1  6
 17  1  1  0
 18  1  2  0
M  END
$$$$
Mpro-x0678_0A
     RDKit          3D

 16 17  0  0  0  0  0  0  0  0999 V2000
    8.8770    0.2420   21.7100 C   0  0  0  0  0  0  0  0  0  0  0  0
    9.4290   -0.2440   23.0440 C   0  0  0  0  0  0  0  0  0  0  0  0
   10.9460   -0.1510   23.1110 C   0  0  2  0  0  0  0  0  0  0  0  0
   11.5980   -1.0970   22.1030 C   0  0  0  0  0  0  0  0  0  0  0  0
   12.8440   -1.7930   22.6460 C   0  0  0  0  0  0  0  0  0  0  0  0
   13.6560   -0.9610   23.6290 C   0  0  0  0  0  0  0  0  0  0  0  0
   12.8280   -0.2530   24.6950 C   0  0  0  0  0  0  0  0  0  0  0  0
   11.3300   -0.4770   24.5430 C   0  0  0  0  0  0  0  0  0  0  0  0
    7.0050    0.1230   20.1050 C   0  0  0  0  0  0  0  0  0  0  0  0
    5.7510    0.7150   20.2210 C   0  0  0  0  0  0  0  0  0  0  0  0
    5.1500    1.1460   19.0440 C   0  0  0  0  0  0  0  0  0  0  0  0
    5.8310    0.9690   17.8480 C   0  0  0  0  0  0  0  0  0  0  0  0
    7.6440   -0.0180   18.8880 C   0  0  0  0  0  0  0  0  0  0  0  0
    7.6200   -0.3130   21.3220 N   0  0  0  0  0  0  0  0  0  0  0  0
    7.0310    0.4080   17.8060 N   0  0  0  0  0  0  0  0  0  0  0  0
    9.4320    1.0350   21.0190 O   0  0  0  0  0  0  0  0  0  0  0  0
  2  1  1  0
  3  2  1  1
  4  3  1  0
  5  4  1  0
  6  5  1  0
  7  6  1  0
  8  7  1  0
  8  3  1  0
 10  9  2  0
 11 10  1  0
 12 11  2  0
 13  9  1  0
 14  9  1  0
 14  1  1  0
 15 13  2  0
 15 12  1  0
 16  1  2  0
M  END
$$$$
Mpro-x0874_0A
     RDKit          3D

 13 14  0  0  0  0  0  0  0  0999 V2000
    9.4710    1.8400   22.2560 C   0  0  0  0  0  0  0  0  0  0  0  0
    9.0850    1.1810   23.6230 C   0  0  1  0  0  0  0  0  0  0  0  0
    7.7610    1.0870   23.7740 C   0  0  0  0  0  0  0  0  0  0  0  0
    7.3710   -0.4220   23.3610 C   0  0  0  0  0  0  0  0  0  0  0  0
    8.7400   -1.1160   23.0260 C   0  0  0  0  0  0  0  0  0  0  0  0
    9.6610   -0.3810   23.7060 C   0  0  1  0  0  0  0  0  0  0  0  0
   11.0880   -0.4660   23.1110 C   0  0  0  0  0  0  0  0  0  0  0  0
   12.0930    0.4570   23.4890 C   0  0  0  0  0  0  0  0  0  0  0  0
   13.3500    0.2460   22.8670 C   0  0  0  0  0  0  0  0  0  0  0  0
   11.4680   -1.4630   22.1890 C   0  0  0  0  0  0  0  0  0  0  0  0
   10.2610    3.0790   22.2600 N   0  0  0  0  0  0  0  0  0  0  0  0
    9.1390    1.3370   21.2020 O   0  0  0  0  0  0  0  0  0  0  0  0
   13.1570   -1.1490   21.8270 S   0  0  0  0  0  0  0  0  0  0  0  0
  2  1  1  6
  3  2  1  0
  4  3  1  0
  5  4  1  0
  6  5  1  0
  6  2  1  0
  6  7  1  6
  8  7  1  0
  9  8  2  0
 10  7  2  0
 11  1  1  0
 12  1  2  0
 13 10  1  0
 13  9  1  0
M  END
$$$$
Mpro-x0946_0A
     RDKit          3D

 11 11  0  0  0  0  0  0  0  0999 V2000
    9.4360    5.1270   22.9850 N   0  0  0  0  0  0  0  0  0  0  0  0
   12.5230    1.0750   23.1410 C   0  0  0  0  0  0  0  0  0  0  0  0
   10.2740    5.1880   25.2900 O   0  0  0  0  0  0  0  0  0  0  0  0
   11.2820    1.1440   23.7810 C   0  0  0  0  0  0  0  0  0  0  0  0
   10.7400    2.4170   24.0420 C   0  0  0  0  0  0  0  0  0  0  0  0
   11.4130    3.6040   23.6760 C   0  0  0  0  0  0  0  0  0  0  0  0
   12.6600    3.4710   23.0460 C   0  0  0  0  0  0  0  0  0  0  0  0
   13.2210    2.2230   22.7800 C   0  0  0  0  0  0  0  0  0  0  0  0
   11.6410    6.1380   23.4950 O   0  0  0  0  0  0  0  0  0  0  0  0
   10.7520    5.1280   23.9640 S   0  0  1  0  0  0  0  0  0  0  0  0
   13.3240   -0.6770   22.6860 Br  0  0  0  0  0  0  0  0  0  0  0  0
  4  2  2  0
  5  4  1  0
  6  5  2  0
  7  6  1  0
  8  7  2  0
  8  2  1  0
 10  3  2  0
 10  1  1  6
 10  6  1  0
 10  9  2  0
 11  2  1  0
M  END
$$$$
Mpro-x0967_0A
     RDKit          3D

 20 20  0  0  0  0  0  0  0  0999 V2000
    7.7260    4.8690   22.5910 C   0  0  0  0  0  0  0  0  0  0  0  0
    6.9570   -0.3040   20.1300 C   0  0  0  0  0  0  0  0  0  0  0  0
    9.0330    0.3460   22.3450 C   0  0  0  0  0  0  0  0  0  0  0  0
    9.9660   -1.8380   21.8880 C   0  0  0  0  0  0  0  0  0  0  0  0
   11.3460   -1.6340   22.3330 C   0  0  0  0  0  0  0  0  0  0  0  0
   12.4860   -1.6780   22.7360 C   0  0  0  0  0  0  0  0  0  0  0  0
    7.2780    3.4900   22.9540 C   0  0  0  0  0  0  0  0  0  0  0  0
    7.8430    1.1140   22.9050 C   0  0  2  0  0  0  0  0  0  0  0  0
    6.5110    0.4740   22.4810 C   0  0  0  0  0  0  0  0  0  0  0  0
    6.2740    0.5360   20.9930 C   0  0  0  0  0  0  0  0  0  0  0  0
    5.3930    1.4560   20.4430 C   0  0  0  0  0  0  0  0  0  0  0  0
    5.1930    1.5360   19.0760 C   0  0  0  0  0  0  0  0  0  0  0  0
    5.8880    0.6810   18.2360 C   0  0  0  0  0  0  0  0  0  0  0  0
    6.7740   -0.2360   18.7620 C   0  0  0  0  0  0  0  0  0  0  0  0
    7.9750    2.4850   22.4320 N   0  0  0  0  0  0  0  0  0  0  0  0
    9.0710   -0.9560   22.6090 N   0  0  0  0  0  0  0  0  0  0  0  0
    6.3010    3.2820   23.6650 O   0  0  0  0  0  0  0  0  0  0  0  0
    5.7360    0.7480   16.8920 O   0  0  0  0  0  0  0  0  0  0  0  0
    9.8820    0.9180   21.6650 O   0  0  0  0  0  0  0  0  0  0  0  0
   14.1800   -1.9940   23.6230 Br  0  0  0  0  0  0  0  0  0  0  0  0
  5  4  1  0
  6  5  3  0
  7  1  1  0
  8  3  1  0
  8  9  1  6
 10  2  2  0
 10  9  1  0
 11 10  1  0
 12 11  2  0
 13 12  1  0
 14 13  2  0
 14  2  1  0
 15  8  1  0
 15  7  1  0
 16  4  1  0
 16  3  1  0
 17  7  2  0
 18 13  1  0
 19  3  2  0
 20  6  1  0
M  END
$$$$
Mpro-x0991_0A
     RDKit          3D

  5  4  0  0  0  0  0  0  0  0999 V2000
   10.1820   -5.7780   25.0930 N   0  0  0  0  0  0  0  0  0  0  0  0
    8.7400   -3.5300   23.3620 C   0  0  0  0  0  0  0  0  0  0  0  0
    8.1280   -4.7690   24.0160 C   0  0  0  0  0  0  0  0  0  0  0  0
    9.0180   -5.2250   25.1730 C   0  0  0  0  0  0  0  0  0  0  0  0
    8.5040   -5.0160   26.4430 N   0  0  0  0  0  0  0  0  0  0  0  0
  3  2  1  0
  4  1  2  0
  4  3  1  0
  5  4  1  0
M  END
$$$$
Mpro-x0995_0A
     RDKit          3D

  7  7  0  0  0  0  0  0  0  0999 V2000
    3.7780    2.0810   19.5740 N   0  0  0  0  0  0  0  0  0  0  0  0
    4.7430    1.2420   19.1650 C   0  0  0  0  0  0  0  0  0  0  0  0
    5.1820    0.1590   19.9680 C   0  0  0  0  0  0  0  0  0  0  0  0
    6.6210   -0.4930   18.2910 C   0  0  0  0  0  0  0  0  0  0  0  0
    5.3540    1.3680   17.8890 C   0  0  0  0  0  0  0  0  0  0  0  0
    6.1060   -0.7170   19.5470 N   0  0  0  0  0  0  0  0  0  0  0  0
    6.2890    0.5100   17.4570 N   0  0  0  0  0  0  0  0  0  0  0  0
  2  1  1  0
  3  2  2  0
  5  2  1  0
  6  3  1  0
  6  4  2  0
  7  5  2  0
  7  4  1  0
M  END
$$$$
Mpro-x1077_0A
     RDKit          3D

 15 16  0  0  0  0  0  0  0  0999 V2000
    9.9560    1.4600   21.3720 N   0  0  0  0  0  0  0  0  0  0  0  0
    9.8140    0.4940   21.9810 C   0  0  0  0  0  0  0  0  0  0  0  0
    7.3410   -5.8780   25.4350 O   0  0  0  0  0  0  0  0  0  0  0  0
    9.6430   -0.6570   22.7710 C   0  0  0  0  0  0  0  0  0  0  0  0
    8.7480   -4.1600   26.4970 C   0  0  0  0  0  0  0  0  0  0  0  0
    8.9370   -0.5550   23.9580 C   0  0  0  0  0  0  0  0  0  0  0  0
    8.8630   -1.6650   24.7930 C   0  0  0  0  0  0  0  0  0  0  0  0
    9.5000   -2.8720   24.4380 C   0  0  0  0  0  0  0  0  0  0  0  0
   10.1740   -2.8620   23.1710 C   0  0  0  0  0  0  0  0  0  0  0  0
    9.9360   -5.3740   24.6740 C   0  0  0  0  0  0  0  0  0  0  0  0
    8.9480   -5.8790   23.6170 C   0  0  0  0  0  0  0  0  0  0  0  0
    7.4830   -5.6600   24.0350 C   0  0  0  0  0  0  0  0  0  0  0  0
    7.3320   -4.7500   26.2750 C   0  0  0  0  0  0  0  0  0  0  0  0
   10.2560   -1.8020   22.3480 N   0  0  0  0  0  0  0  0  0  0  0  0
    9.5770   -4.0550   25.2640 N   0  0  0  0  0  0  0  0  0  0  0  0
  2  1  3  0
  4  2  1  0
  6  4  2  0
  7  6  1  0
  8  7  2  0
  9  8  1  0
 11 10  1  0
 12 11  1  0
 12  3  1  0
 13  3  1  0
 13  5  1  0
 14  9  2  0
 14  4  1  0
 15 10  1  0
 15  8  1  0
 15  5  1  0
M  END
$$$$
Mpro-x1093_0A
     RDKit          3D

 19 21  0  0  0  0  0  0  0  0999 V2000
   13.7860   -1.3180   23.5930 C   0  0  0  0  0  0  0  0  0  0  0  0
    5.8150    0.8080   18.7500 C   0  0  0  0  0  0  0  0  0  0  0  0
    4.0210    1.8800   19.6100 C   0  0  0  0  0  0  0  0  0  0  0  0
    4.3870    1.5620   20.9150 C   0  0  0  0  0  0  0  0  0  0  0  0
    5.5360    0.8310   21.1360 C   0  0  0  0  0  0  0  0  0  0  0  0
    6.2830    0.4300   20.0230 C   0  0  0  0  0  0  0  0  0  0  0  0
   11.5220   -1.8790   22.9830 C   0  0  0  0  0  0  0  0  0  0  0  0
   10.0680   -1.4940   23.1220 C   0  0  0  0  0  0  0  0  0  0  0  0
   10.7110    0.8250   23.3520 C   0  0  0  0  0  0  0  0  0  0  0  0
   12.1620    0.4250   23.2300 C   0  0  0  0  0  0  0  0  0  0  0  0
    9.1190    0.2040   21.5690 C   0  0  0  0  0  0  0  0  0  0  0  0
    8.3620   -0.9080   20.8580 C   0  0  0  0  0  0  0  0  0  0  0  0
    7.4860   -0.3160   19.8060 C   0  0  0  0  0  0  0  0  0  0  0  0
    7.6940   -0.3430   18.4600 C   0  0  0  0  0  0  0  0  0  0  0  0
   12.3770   -0.9420   23.7140 N   0  0  0  0  0  0  0  0  0  0  0  0
    9.8830   -0.1320   22.6240 N   0  0  0  0  0  0  0  0  0  0  0  0
    6.6910    0.3330   17.8190 N   0  0  0  0  0  0  0  0  0  0  0  0
    4.7090    1.5290   18.5160 N   0  0  0  0  0  0  0  0  0  0  0  0
    9.0430    1.3620   21.1650 O   0  0  0  0  0  0  0  0  0  0  0  0
  4  3  2  0
  5  4  1  0
  6  5  2  0
  6  2  1  0
  8  7  1  0
 10  9  1  0
 12 11  1  0
 13 12  1  0
 13  6  1  0
 14 13  2  0
 15 10  1  0
 15  7  1  0
 15  1  1  0
 16 11  1  0
 16  9  1  0
 16  8  1  0
 17 14  1  0
 17  2  2  0
 18  3  1  0
 18  2  1  0
 19 11  2  0
M  END
$$$$
Mpro-x1249_0A
     RDKit          3D

 18 19  0  0  0  0  0  0  0  0999 V2000
    8.5030    0.6580   24.9390 N   0  0  0  0  0  0  0  0  0  0  0  0
    7.7590    1.4180   24.0350 C   0  0  0  0  0  0  0  0  0  0  0  0
    8.2320    2.4160   23.4670 O   0  0  0  0  0  0  0  0  0  0  0  0
    9.8880    0.9910   25.2660 C   0  0  0  0  0  0  0  0  0  0  0  0
    4.1020    0.3090   24.7480 C   0  0  0  0  0  0  0  0  0  0  0  0
    4.2750    1.0020   22.4760 C   0  0  0  0  0  0  0  0  0  0  0  0
    5.6700    1.6100   22.7210 C   0  0  0  0  0  0  0  0  0  0  0  0
   10.8080    0.3670   24.2550 C   0  0  0  0  0  0  0  0  0  0  0  0
   11.9720    1.0270   23.8700 C   0  0  0  0  0  0  0  0  0  0  0  0
   12.8210    0.4480   22.9310 C   0  0  0  0  0  0  0  0  0  0  0  0
   12.4860   -0.7890   22.3690 C   0  0  0  0  0  0  0  0  0  0  0  0
   13.3240   -1.3620   21.3880 C   0  0  0  0  0  0  0  0  0  0  0  0
   11.3260   -1.4570   22.7540 C   0  0  0  0  0  0  0  0  0  0  0  0
   10.4890   -0.8790   23.6990 C   0  0  0  0  0  0  0  0  0  0  0  0
    5.5340    0.8070   25.0500 C   0  0  0  0  0  0  0  0  0  0  0  0
   14.0270   -1.7990   20.5870 N   0  0  0  0  0  0  0  0  0  0  0  0
    6.3900    0.9200   23.8240 N   0  0  0  0  0  0  0  0  0  0  0  0
    3.5290    1.0370   23.6760 O   0  0  0  0  0  0  0  0  0  0  0  0
  2  1  1  0
  3  2  2  0
  4  1  1  0
  7  6  1  0
  8  4  1  0
  9  8  2  0
 10  9  1  0
 11 10  2  0
 12 11  1  0
 13 11  1  0
 14  8  1  0
 14 13  2  0
 15  5  1  0
 16 12  3  0
 17 15  1  0
 17  7  1  0
 17  2  1  0
 18  6  1  0
 18  5  1  0
M  END
$$$$
Mpro-x2193_0A
     RDKit          3D

 16 17  0  0  0  0  0  0  0  0999 V2000
    8.4490    2.3010   22.7710 O   0  0  0  0  0  0  0  0  0  0  0  0
    9.7550    1.7280   22.5960 S   0  0  1  0  0  0  0  0  0  0  0  0
   10.2930    1.6650   21.2670 O   0  0  0  0  0  0  0  0  0  0  0  0
   10.8860    2.5950   23.6160 C   0  0  0  0  0  0  0  0  0  0  0  0
    9.7330    0.0890   23.2590 C   0  0  0  0  0  0  0  0  0  0  0  0
    9.4890   -0.0940   24.6090 C   0  0  0  0  0  0  0  0  0  0  0  0
    9.3310   -1.3730   25.1060 C   0  0  0  0  0  0  0  0  0  0  0  0
    9.4280   -2.4810   24.2700 C   0  0  0  0  0  0  0  0  0  0  0  0
    9.7160   -2.2770   22.9190 C   0  0  0  0  0  0  0  0  0  0  0  0
    9.8710   -0.9990   22.4130 C   0  0  0  0  0  0  0  0  0  0  0  0
    9.1950   -3.7690   24.7680 N   0  0  0  0  0  0  0  0  0  0  0  0
    8.8800   -3.9660   26.1900 C   0  0  0  0  0  0  0  0  0  0  0  0
    8.1720   -5.2900   26.4020 C   0  0  0  0  0  0  0  0  0  0  0  0
    8.9550   -6.3950   25.8070 N   0  0  0  0  0  0  0  0  0  0  0  0
    9.2180   -6.1610   24.3760 C   0  0  0  0  0  0  0  0  0  0  0  0
    9.9840   -4.8720   24.2140 C   0  0  0  0  0  0  0  0  0  0  0  0
  2  1  2  0
  3  2  2  0
  2  4  1  1
  5  2  1  0
  6  5  2  0
  7  6  1  0
  8  7  2  0
  9  8  1  0
 10  9  2  0
 10  5  1  0
 11  8  1  0
 12 11  1  0
 13 12  1  0
 14 13  1  0
 15 14  1  0
 16 15  1  0
 16 11  1  0
M  END
$$$$
