Mpro-x0072_0A
     RDKit          3D

 13 13  0  0  0  0  0  0  0  0999 V2000
    6.4820   -5.0190   26.5690 C   0  0  0  0  0  0  0  0  0  0  0  0
    9.3680   -3.0940   24.1630 C   0  0  0  0  0  0  0  0  0  0  0  0
    9.2670   -1.8110   23.3490 C   0  0  0  0  0  0  0  0  0  0  0  0
   10.6630   -1.2110   23.3970 C   0  0  0  0  0  0  0  0  0  0  0  0
   10.9730   -0.1690   24.2630 C   0  0  0  0  0  0  0  0  0  0  0  0
   12.2640    0.3320   24.2880 C   0  0  0  0  0  0  0  0  0  0  0  0
   13.2420   -0.2210   23.4770 C   0  0  0  0  0  0  0  0  0  0  0  0
   12.9290   -1.2700   22.6220 C   0  0  0  0  0  0  0  0  0  0  0  0
   11.6400   -1.7610   22.5910 C   0  0  0  0  0  0  0  0  0  0  0  0
    8.1130   -3.6000   24.6580 N   0  0  0  0  0  0  0  0  0  0  0  0
    9.1280   -5.5160   26.1560 O   0  0  0  0  0  0  0  0  0  0  0  0
    8.6930   -3.5880   27.1960 O   0  0  0  0  0  0  0  0  0  0  0  0
    8.1440   -4.4290   26.1460 S   0  0  2  0  0  0  0  0  0  0  0  0
  3  2  1  0
  4  3  1  0
  5  4  2  0
  6  5  1  0
  7  6  2  0
  8  7  1  0
  9  4  1  0
  9  8  2  0
 10  2  1  0
 13 11  2  0
 13 12  2  0
 13 10  1  0
 13  1  1  1
M  END
$$$$
Mpro-x0104_0A
     RDKit          3D

 16 17  0  0  0  0  0  0  0  0999 V2000
    9.0920    6.1800   22.6540 C   0  0  0  0  0  0  0  0  0  0  0  0
   10.3730    5.8770   23.4210 C   0  0  0  0  0  0  0  0  0  0  0  0
   12.7640    5.0090   23.3820 C   0  0  0  0  0  0  0  0  0  0  0  0
   13.1400    3.5810   22.9820 C   0  0  0  0  0  0  0  0  0  0  0  0
   12.1520    2.4980   23.4440 C   0  0  0  0  0  0  0  0  0  0  0  0
   11.0280    2.6760   24.2350 C   0  0  0  0  0  0  0  0  0  0  0  0
   11.1270    0.5250   23.7420 C   0  0  0  0  0  0  0  0  0  0  0  0
   10.8970   -0.8700   23.6180 C   0  0  0  0  0  0  0  0  0  0  0  0
   11.7770   -1.6500   22.8720 C   0  0  0  0  0  0  0  0  0  0  0  0
   12.8810   -1.0580   22.2500 C   0  0  0  0  0  0  0  0  0  0  0  0
   13.1060    0.3120   22.3790 C   0  0  0  0  0  0  0  0  0  0  0  0
   12.2110    1.1150   23.1360 C   0  0  0  0  0  0  0  0  0  0  0  0
   13.7480   -1.8150   21.5190 F   0  0  0  0  0  0  0  0  0  0  0  0
   11.5230    5.3440   22.7110 N   0  0  0  0  0  0  0  0  0  0  0  0
   10.4360    1.5010   24.3980 N   0  0  0  0  0  0  0  0  0  0  0  0
   10.4150    6.0670   24.5850 O   0  0  0  0  0  0  0  0  0  0  0  0
  2  1  1  0
  4  3  1  0
  5  4  1  0
  6  5  2  0
  8  7  2  0
  9  8  1  0
 10  9  2  0
 11 10  1  0
 12 11  2  0
 12  7  1  0
 12  5  1  0
 13 10  1  0
 14  2  1  0
 14  3  1  0
 15  7  1  0
 15  6  1  0
 16  2  2  0
M  END
$$$$
Mpro-x0107_0A
     RDKit          3D

 11 11  0  0  0  0  0  0  0  0999 V2000
   10.0930   -0.7090   22.5610 C   0  0  0  0  0  0  0  0  0  0  0  0
    9.1970   -0.0850   21.4940 C   0  0  0  0  0  0  0  0  0  0  0  0
    7.0950   -0.1380   20.0970 C   0  0  0  0  0  0  0  0  0  0  0  0
    7.4670   -0.2020   18.7610 C   0  0  0  0  0  0  0  0  0  0  0  0
    5.5850    0.9230   18.1010 C   0  0  0  0  0  0  0  0  0  0  0  0
    5.1320    1.0430   19.4080 C   0  0  0  0  0  0  0  0  0  0  0  0
    5.9020    0.4960   20.4350 C   0  0  0  0  0  0  0  0  0  0  0  0
    5.4610    0.5980   21.8930 C   0  0  0  0  0  0  0  0  0  0  0  0
    7.9490   -0.7270   21.1170 N   0  0  0  0  0  0  0  0  0  0  0  0
    6.7150    0.3200   17.8100 N   0  0  0  0  0  0  0  0  0  0  0  0
    9.5230    0.9280   20.9800 O   0  0  0  0  0  0  0  0  0  0  0  0
  2  1  1  0
  4  3  2  0
  6  5  1  0
  7  6  2  0
  7  3  1  0
  8  7  1  0
  9  3  1  0
  9  2  1  0
 10  5  2  0
 10  4  1  0
 11  2  2  0
M  END
$$$$
